Version 4
SHEET 1 1296 680
WIRE 496 -96 432 -96
WIRE 656 -96 576 -96
WIRE 928 -96 656 -96
WIRE 432 -16 432 -96
WIRE 656 -16 656 -96
WIRE 528 32 496 32
WIRE 784 32 720 32
WIRE 528 144 528 32
WIRE 656 144 656 80
WIRE 656 144 528 144
WIRE 688 144 656 144
WIRE 784 144 784 32
WIRE 784 144 768 144
WIRE 432 240 432 80
WIRE 560 240 432 240
WIRE 432 272 432 240
WIRE 560 272 560 240
WIRE 784 272 784 144
WIRE 928 288 928 -96
WIRE 432 384 432 336
WIRE 560 384 560 352
WIRE 784 384 784 352
WIRE 928 384 928 352
FLAG 432 384 0
FLAG 560 384 0
FLAG 784 384 0
FLAG 256 -48 0
FLAG 928 384 0
SYMBOL voltage 96 80 R0
SYMATTR InstName V1
SYMBOL pnp 496 80 R180
SYMATTR InstName Q1
SYMBOL pnp 720 80 R180
SYMATTR InstName Q2
SYMBOL res 592 -112 R90
WINDOW 0 0 56 VBottom 2
WINDOW 3 32 56 VTop 2
SYMATTR InstName R2
SYMATTR Value 10R
SYMBOL res 784 128 R90
WINDOW 0 0 56 VBottom 2
WINDOW 3 32 56 VTop 2
SYMATTR InstName R3
SYMATTR Value 1k
SYMBOL cap 224 80 R0
SYMATTR InstName C1
SYMBOL cap 416 272 R0
SYMATTR InstName C2
SYMATTR Value 100n
SYMBOL res 544 256 R0
SYMATTR InstName R1
SYMATTR Value 10k
SYMBOL res 768 256 R0
SYMATTR InstName R4
SYMATTR Value 33k
SYMBOL cap 912 288 R0
SYMATTR InstName C3
SYMATTR Value 100n
SYMBOL diode 1216 304 R270
WINDOW 0 32 32 VTop 2
WINDOW 3 0 32 VBottom 2
SYMATTR InstName D1
